*Heading
** Job name: 2c2p-C2H-bolt Model name: 2ch2p-C2H-bolt
** Generated by: Abaqus/CAE 2023
*Preprint, echo=NO, model=NO, history=NO, contact=NO
**
** PARTS
**
*Part, name=C-Ch-Double
*Node
      1,           0.,         100.,        732.5
      2,           0.,         100.,        757.5
      3,           0.,         100.,        562.5
      4,           0.,         100.,        587.5
      5,           0.,         100.,        927.5
      6,           0.,         100.,        902.5
      7,           0.,         200.,        1000.
      8,           0.,         100.,        1000.
      9,           0.,         200.,         500.
     10,           0.,         100.,         500.
     11,           0.,         100.,       1097.5
     12,           0.,         100.,       1072.5
     13,           0.,         100.,       1412.5
     14,           0.,         100.,       1437.5
     15,           0.,         100.,       1242.5
     16,           0.,         100.,       1267.5
     17,           0.,         100.,        1500.
     18,           0.,         200.,        1500.
     19,           0.,         300.,        587.5
     20,           0.,         300.,        562.5
** ... 37691 like lines cut
*Element, type=S4R
 1,   95,   96, 3517, 3521
 2, 3521, 3517, 3518, 3520
 3, 3518, 3519, 3522, 3520
 4, 3519,   91,   92, 3522
 5,   92,   93, 3523, 3522
 6,   93,    1,   94, 3523
 7, 3522, 3523, 3521, 3520
 8, 3523,   94,   95, 3521
 9,   90,   91, 3519, 3524
10, 3519, 3518, 3526, 3524
11, 3518, 3517, 3525, 3526
12, 3517,   96,   97, 3525
13,   97,    2,   88, 3525
14, 3525,   88,   89, 3526
15, 3526,   89,   90, 3524
16,  105,  106, 3532, 3531
17,  106,  107, 3527, 3532
18, 3531, 3532, 3530, 3529
19, 3532, 3527, 3528, 3530
20, 3528,  101,  102, 3530
** ... 37316 like lines cut
*Element, type=S3
8829, 11619, 11629, 11628
8945, 11675, 11677, 11676
9816, 12514, 12522, 12521
11708, 14284, 14293, 14292
12579, 15098, 15106, 15105
12695, 15139, 15141, 15140
13771, 16165, 16175, 16174
14847, 17179, 17189, 17188
14963, 17235, 17237, 17236
15834, 18074, 18082, 18081
16756, 18934, 18943, 18942
17678, 19796, 19805, 19804
18449, 20511, 20519, 20518
18565, 20552, 20554, 20553
24994, 26284, 26383, 26382
28053, 29168, 29178, 29177
*Nset, nset=_PickedSet28, internal, generate
     1,  37711,      1
*Elset, elset=_PickedSet28, internal, generate
     1,  37352,      1
** Section: plt-46
*Shell Section, elset=_PickedSet28, material=HT780, offset=SNEG
4.6, 5
*End Part
**  
*Part, name=load-plate
*Node
      1,         249.,          40.,           0.
      2,         249.,          40.,          20.
      3,         249.,         -20.,          20.
      4,         249.,         -20.,           0.
      5,           0.,          40.,          20.
      6,           0.,         -20.,          20.
      7,           0.,         -20.,           0.
      8,           0.,          40.,           0.
      9,         249.,         100.,           0.
     10,         249.,         100.,          20.
     11,           0.,         100.,           0.
     12,           0.,         100.,          20.
     13,         249.,          40.,          10.
     14,         249.,          28.,          20.
     15,         249.,          16.,          20.
     16,         249.,           4.,          20.
     17,         249.,          -8.,          20.
     18,         249.,         -20.,          10.
     19,         249.,          -8.,           0.
     20,         249.,           4.,           0.
** ... 706 like lines cut
*Element, type=C3D8R
  1,  72, 339, 567, 179,   1,  13, 171,  22
  2, 339,  93, 259, 567,  13,   2,  14, 171
  3, 179, 567, 568, 180,  22, 171, 172,  21
  4, 567, 259, 260, 568, 171,  14,  15, 172
  5, 180, 568, 569, 181,  21, 172, 173,  20
  6, 568, 260, 261, 569, 172,  15,  16, 173
  7, 181, 569, 570, 182,  20, 173, 174,  19
  8, 569, 261, 262, 570, 173,  16,  17, 174
  9, 182, 570, 359,  33,  19, 174,  18,   4
 10, 570, 262,  92, 359, 174,  17,   3,  18
 11,  71, 340, 571, 183,  72, 339, 567, 179
 12, 340,  94, 263, 571, 339,  93, 259, 567
 13, 183, 571, 572, 184, 179, 567, 568, 180
 14, 571, 263, 264, 572, 567, 259, 260, 568
 15, 184, 572, 573, 185, 180, 568, 569, 181
 16, 572, 264, 265, 573, 568, 260, 261, 569
 17, 185, 573, 574, 186, 181, 569, 570, 182
 18, 573, 265, 266, 574, 569, 261, 262, 570
 19, 186, 574, 360,  34, 182, 570, 359,  33
 20, 574, 266,  91, 360, 570, 262,  92, 359
** ... 400 like lines cut
*Nset, nset=_PickedSet3, internal, generate
   1,  726,    1
*Elset, elset=_PickedSet3, internal, generate
   1,  420,    1
** Section: elastic
*Solid Section, elset=_PickedSet3, material=Elastic
,
*End Part
**  
*Part, name=patch-plate
*Node
      1,        257.5,          90.,           0.
      2,        232.5,          90.,           0.
      3,         87.5,          90.,           0.
      4,         62.5,          90.,           0.
      5,        427.5,          90.,           0.
      6,        402.5,          90.,           0.
      7,           0.,          90.,           0.
      8,           0.,           0.,           0.
      9,         500.,           0.,           0.
     10,         500.,          90.,           0.
     11,        597.5,          90.,           0.
     12,        572.5,          90.,           0.
     13,        937.5,          90.,           0.
     14,        912.5,          90.,           0.
     15,        767.5,          90.,           0.
     16,        742.5,          90.,           0.
     17,        1000.,           0.,           0.
     18,        1000.,          90.,           0.
     19,        257.5,         290.,           0.
     20,        232.5,         290.,           0.
** ... 1488 like lines cut
*Element, type=S4R
1, 42,  2, 43, 41
2, 40, 41, 43,  1
3, 46,  4, 47, 45
4, 44, 45, 47,  3
5, 50,  6, 51, 49
6, 48, 49, 51,  5
7, 54,  3, 47, 53
8, 47,  4, 52, 53
 9, 57,  1, 43, 56
10, 55, 56, 43,  2
 23, 399,  58, 393, 506
 24, 391, 396,  59,  60
 25, 426, 438, 463, 485
 26, 390,  55, 386, 416
 27, 484, 452, 465, 486
 28, 403, 397, 507, 410
 29, 509, 388, 505, 400
 30, 478, 492, 418, 504
 31, 384,   4,  73, 408
 32, 432, 415, 428, 492
** ... 1375 like lines cut
*Element, type=S3
11, 424,  57, 387
12, 416, 386, 407
13, 450, 446, 433
14, 443, 411, 440
15, 431, 427, 403
16, 404, 435, 409
17, 477, 445, 475
18, 512, 482, 481
19, 520, 474, 503
20, 498, 516, 489
21, 499, 483, 497
22, 519, 441, 410
197, 588, 128, 523
198, 539, 547, 527
199, 584, 136, 530
200, 625, 612, 618
201, 637, 589, 529
202, 594, 593, 541
203, 597, 578, 532
204, 614, 605, 587
** ... 64 like lines cut
*Nset, nset=_PickedSet15, internal, generate
    1,  1508,     1
*Elset, elset=_PickedSet15, internal, generate
    1,  1479,     1
** Section: patch-plate
*Shell Section, elset=_PickedSet15, material=timber
9., 5
*End Part
**  
*Part, name=stiffness
*Node
      1,           0.,         195.,           0.
      2,         108.,         195.,           0.
      3,         108.,         390.,           0.
      4,           0.,         370.,           0.
      5,          20.,         390.,           0.
      6,          20.,           0.,           0.
      7,           0.,          20.,           0.
      8,         108.,           0.,           0.
      9,   9.81818199,         195.,           0.
     10,    19.636364,         195.,           0.
     11,    29.454546,         195.,           0.
     12,    39.272728,         195.,           0.
     13,   49.0909081,         195.,           0.
     14,   58.9090919,         195.,           0.
     15,    68.727272,         195.,           0.
     16,   78.5454559,         195.,           0.
     17,   88.3636398,         195.,           0.
     18,   98.1818161,         195.,           0.
     19,         108.,   204.285721,           0.
     20,         108.,   213.571426,           0.
** ... 1438 like lines cut
*Element, type=S8R
  1,   1,   9, 115,  65, 505, 506, 507, 508
  2,   9,  10, 116, 115, 509, 510, 511, 506
  3,  10,  11, 117, 116, 512, 513, 514, 510
  4,  11,  12, 118, 117, 515, 516, 517, 513
  5,  12,  13, 119, 118, 518, 519, 520, 516
  6,  13,  14, 120, 119, 521, 522, 523, 519
  7,  14,  15, 121, 120, 524, 525, 526, 522
  8,  15,  16, 122, 121, 527, 528, 529, 525
  9,  16,  17, 123, 122, 530, 531, 532, 528
 10,  17,  18, 124, 123, 533, 534, 535, 531
 11,  18,   2,  19, 124, 536, 537, 538, 534
 12,  65, 115, 125,  64, 507, 539, 540, 541
 13, 115, 116, 126, 125, 511, 542, 543, 539
 14, 116, 117, 127, 126, 514, 544, 545, 542
 15, 117, 118, 128, 127, 517, 546, 547, 544
 16, 118, 119, 129, 128, 520, 548, 549, 546
 17, 119, 120, 130, 129, 523, 550, 551, 548
 18, 120, 121, 131, 130, 526, 552, 553, 550
 19, 121, 122, 132, 131, 529, 554, 555, 552
 20, 122, 123, 133, 132, 532, 556, 557, 554
** ... 431 like lines cut
*Nset, nset=_PickedSet2, internal, generate
    1,  1458,     1
*Elset, elset=_PickedSet2, internal, generate
   1,  451,    1
** Section: plt-46
*Shell Section, elset=_PickedSet2, material=HT780
4.6, 5
*End Part
**  
*Part, name=sup-plt
*Node
      1,         150.,         200.,           0.
      2,          75.,         200.,           0.
      3,          75.,         100.,           0.
      4,         150.,         100.,           0.
      5,           0.,         200.,           0.
      6,           0.,         100.,           0.
      7,         150.,         300.,           0.
      8,          75.,         300.,           0.
      9,           0.,         300.,           0.
     10,          75.,         400.,           0.
     11,           0.,         400.,           0.
     12,          75.,           0.,           0.
     13,         150.,           0.,           0.
     14,         150.,         400.,           0.
     15,           0.,           0.,           0.
     16,       131.25,         200.,           0.
     17,        112.5,         200.,           0.
     18,        93.75,         200.,           0.
     19,          75.,         180.,           0.
     20,          75.,         160.,           0.
** ... 169 like lines cut
*Element, type=S4R
 1,   1,  16,  94,  29
 2,  16,  17,  95,  94
 3,  17,  18,  96,  95
 4,  18,   2,  19,  96
 5,  29,  94,  97,  28
 6,  94,  95,  98,  97
 7,  95,  96,  99,  98
 8,  96,  19,  20,  99
 9,  28,  97, 100,  27
10,  97,  98, 101, 100
11,  98,  99, 102, 101
12,  99,  20,  21, 102
13,  27, 100, 103,  26
14, 100, 101, 104, 103
15, 101, 102, 105, 104
16, 102,  21,  22, 105
17,  26, 103,  25,   4
18, 103, 104,  24,  25
19, 104, 105,  23,  24
20, 105,  22,   3,  23
** ... 140 like lines cut
*Nset, nset=_PickedSet10, internal, generate
   1,  189,    1
*Elset, elset=_PickedSet10, internal, generate
   1,  160,    1
** Section: sup-plate
*Shell Section, elset=_PickedSet10, material=Elastic
9., 5
*End Part
**  
**
** ASSEMBLY
**
*Assembly, name=Assembly
**  
*Instance, name=C-Ch-Double-1, part=C-Ch-Double
*End Instance
**  
*Instance, name=stiffness-1, part=stiffness
         4.6,           5.,        1000.
*End Instance
**  
*Instance, name=stiffness-1-lin-2-1, part=stiffness
         4.6,           5.,         500.
*End Instance
**  
*Instance, name=stiffness-1-lin-2-1-1, part=stiffness
         4.6,           5.,        1500.
*End Instance
**  
*Instance, name=load-plate-1, part=load-plate
       -129.,         420.,         960.
       -129.,         420.,         960., -127.999999987312,         420.,         960., 89.9999992730282
*End Instance
**  
*Instance, name=C-Ch-Double-1-lin-2-1, part=C-Ch-Double
-8.99999999999989,           0.,        2000.
-8.99999999999989,           0.,        2000., -8.99999999999989,           1.,        2000.,         180.
*End Instance
**  
*Instance, name=stiffness-1-lin-2-1-2, part=stiffness
       -13.6,           5.,        1000.
       -13.6,           5.,        1000.,        -13.6,           6.,        1000.,         180.
*End Instance
**  
*Instance, name=stiffness-1-lin-2-1-lin-2-1, part=stiffness
-13.5999999999999,           5.,        1500.
-13.5999999999999,           5.,        1500., -13.5999999999999,           6.,        1500.,         180.
*End Instance
**  
*Instance, name=stiffness-1-lin-2-1-1-lin-2-1, part=stiffness
-13.6000000000001,           5.,         500.
-13.6000000000001,           5.,         500., -13.6000000000001,           6.,         500.,         180.
*End Instance
**  
*Instance, name=patch-plate-1, part=patch-plate
-4.50000000000006,          10.,         500.
-4.50000000000006,          10.,         500., -4.50000000000006, 8.99999998731195,         500., 89.9999992730282
*End Instance
**  
*Instance, name=sup-plt-1, part=sup-plt
        -4.5,           0.,        2030.
        -4.5,           0.,        2030.,         -4.5, 1.00000001268805,        2030., 89.9999992730282
*End Instance
**  
*Instance, name=sup-plt-2, part=sup-plt
        -4.5,           0.,         120.
        -4.5,           0.,         120.,         -4.5, 1.00000001268805,         120., 89.9999992730282
*End Instance
**  
*Node
      1,         -4.5,         200.,        2100.
*Node
      2,         -4.5,         200.,        -100.
*Node
      3,         -4.5,         450.,        1000.
*Nset, nset=Set-20, instance=sup-plt-1
 12,
*Nset, nset=bflg-c, instance=C-Ch-Double-1
   75,   76, 2432, 2433, 2434, 2435, 2436, 2437, 2438, 2439, 2440, 2441, 2442, 2443, 2444, 2445
 2446, 2447, 2448, 2449, 2450, 2451, 2452
*Elset, elset=bflg-c, instance=C-Ch-Double-1
 24674, 24675, 24676, 24677, 24678, 24679, 24680, 24681, 24682, 24683, 24684, 24685, 24686, 24687, 24688, 24689
 24690, 24691, 24692, 24693, 24694, 24695, 34836, 34837, 34838, 34839, 34840, 34841, 34842, 34843, 34844, 34845
 34846, 34847, 34848, 34849, 34850, 34851, 34852, 34853, 34854, 34855, 34856, 34857
*Nset, nset=cch-supbolt, instance=C-Ch-Double-1
 40, 41, 42, 55, 56, 57
*Nset, nset=cch-supbolt, instance=C-Ch-Double-1-lin-2-1
 40, 41, 42, 55, 56, 57
*Nset, nset=plate-lower-set, instance=load-plate-1
   2,   3,   5,   6,  10,  12,  14,  15,  16,  17,  24,  25,  26,  27,  73,  74
  75,  76,  77,  78,  79,  80,  81,  82,  83,  84,  85,  86,  87,  88,  89,  90
  91,  92,  93,  94,  95,  96,  97,  98,  99, 100, 101, 102, 103, 104, 105, 106
 107, 108, 109, 110, 111, 112, 118, 119, 120, 121, 127, 128, 129, 130, 131, 132
 133, 134, 135, 136, 137, 138, 139, 140, 141, 142, 143, 144, 145, 146, 147, 148
 149, 150, 259, 260, 261, 262, 263, 264, 265, 266, 267, 268, 269, 270, 271, 272
 273, 274, 275, 276, 277, 278, 279, 280, 281, 282, 283, 284, 285, 286, 287, 288
 289, 290, 291, 292, 293, 294, 295, 296, 297, 298, 299, 300, 301, 302, 303, 304
 305, 306, 307, 308, 309, 310, 311, 312, 313, 314, 315, 316, 317, 318, 319, 320
 321, 322, 323, 324, 325, 326, 327, 328, 329, 330, 331, 332, 333, 334, 335, 336
 337, 338, 387, 388, 389, 390, 391, 392, 393, 394, 395, 396, 397, 398, 399, 400
 401, 402, 403, 404, 405, 406, 407, 408, 409, 410, 411, 412, 413, 414, 415, 416
 417, 418, 419, 420, 421, 422, 423, 424, 425, 426, 427, 428, 429, 430, 431, 432
 433, 434, 435, 436, 437, 438, 439, 440, 441, 442, 443, 444, 445, 446, 447, 448
 449, 450, 451, 452, 453, 454, 455, 456, 457, 458, 459, 460, 461, 462, 463, 464
 465, 466
*Elset, elset=plate-lower-set, instance=load-plate-1
   2,   4,   6,   8,  10,  12,  14,  16,  18,  20,  22,  24,  26,  28,  30,  32
  34,  36,  38,  40,  42,  44,  46,  48,  50,  52,  54,  56,  58,  60,  62,  64
  66,  68,  70,  72,  74,  76,  78,  80,  82,  84,  86,  88,  90,  92,  94,  96
  98, 100, 102, 104, 106, 108, 110, 112, 114, 116, 118, 120, 122, 124, 126, 128
 130, 132, 134, 136, 138, 140, 142, 144, 146, 148, 150, 152, 154, 156, 158, 160
 162, 164, 166, 168, 170, 172, 174, 176, 178, 180, 182, 184, 186, 188, 190, 192
 194, 196, 198, 200, 202, 204, 206, 208, 210, 211, 213, 215, 217, 219, 221, 223
 225, 227, 229, 231, 233, 235, 237, 239, 241, 243, 245, 247, 249, 251, 253, 255
 257, 259, 261, 263, 265, 267, 269, 271, 273, 275, 277, 279, 281, 283, 285, 287
 289, 291, 293, 295, 297, 299, 301, 303, 305, 307, 309, 311, 313, 315, 317, 319
 321, 323, 325, 327, 329, 331, 333, 335, 337, 339, 341, 343, 345, 347, 349, 351
 353, 355, 357, 359, 361, 363, 365, 367, 369, 371, 373, 375, 377, 379, 381, 383
 385, 387, 389, 391, 393, 395, 397, 399, 401, 403, 405, 407, 409, 411, 413, 415
 417, 419
*Nset, nset=sup-plt-bolt, instance=sup-plt-1
 2, 3, 8
*Nset, nset=sup-plt-bolt, instance=sup-plt-2
 2, 3, 8
*Nset, nset=sup-point, instance=sup-plt-1
 12,
*Nset, nset=sup-point, instance=sup-plt-2
 12,
*Nset, nset=_PickedSet10, internal, instance=stiffness-1
    1,    3,    4,    5,    6,    7,    8,   39,   40,   41,   42,   43,   44,   45,   46,   47
   48,   49,   50,   51,   52,   53,   54,   55,   56,   57,   58,   59,   60,   61,   62,   63
   64,   65,   68,   69,   70,   71,   72,   73,   74,   75,   76,   77,   78,   79,   80,   81
   82,   83,   84,   85,   86,   87,   88,   89,   90,   91,   92,   93,  508,  541,  564,  587
  610,  633,  656,  679,  702,  725,  748,  771,  794,  817,  840,  863,  886,  909,  977,  980
  982,  984,  986,  988,  990,  992,  994,  996,  998, 1020, 1043, 1066, 1089, 1112, 1135, 1158
 1181, 1204, 1227, 1250, 1273, 1296, 1319, 1342, 1365, 1388, 1411, 1434, 1437, 1440, 1442, 1444
 1446, 1448, 1450, 1452, 1457
*Nset, nset=_PickedSet10, internal, instance=stiffness-1-lin-2-1
    1,    3,    4,    5,    6,    7,    8,   39,   40,   41,   42,   43,   44,   45,   46,   47
   48,   49,   50,   51,   52,   53,   54,   55,   56,   57,   58,   59,   60,   61,   62,   63
   64,   65,   68,   69,   70,   71,   72,   73,   74,   75,   76,   77,   78,   79,   80,   81
   82,   83,   84,   85,   86,   87,   88,   89,   90,   91,   92,   93,  508,  541,  564,  587
  610,  633,  656,  679,  702,  725,  748,  771,  794,  817,  840,  863,  886,  909,  977,  980
  982,  984,  986,  988,  990,  992,  994,  996,  998, 1020, 1043, 1066, 1089, 1112, 1135, 1158
 1181, 1204, 1227, 1250, 1273, 1296, 1319, 1342, 1365, 1388, 1411, 1434, 1437, 1440, 1442, 1444
 1446, 1448, 1450, 1452, 1457
*Nset, nset=_PickedSet10, internal, instance=stiffness-1-lin-2-1-1
    1,    3,    4,    5,    6,    7,    8,   39,   40,   41,   42,   43,   44,   45,   46,   47
   48,   49,   50,   51,   52,   53,   54,   55,   56,   57,   58,   59,   60,   61,   62,   63
   64,   65,   68,   69,   70,   71,   72,   73,   74,   75,   76,   77,   78,   79,   80,   81
   82,   83,   84,   85,   86,   87,   88,   89,   90,   91,   92,   93,  508,  541,  564,  587
  610,  633,  656,  679,  702,  725,  748,  771,  794,  817,  840,  863,  886,  909,  977,  980
  982,  984,  986,  988,  990,  992,  994,  996,  998, 1020, 1043, 1066, 1089, 1112, 1135, 1158
 1181, 1204, 1227, 1250, 1273, 1296, 1319, 1342, 1365, 1388, 1411, 1434, 1437, 1440, 1442, 1444
 1446, 1448, 1450, 1452, 1457
*Elset, elset=_PickedSet10, internal, instance=stiffness-1
   1,  12,  23,  34,  45,  56,  67,  78,  89, 100, 111, 122, 133, 144, 155, 166
 177, 188, 221, 222, 223, 224, 225, 226, 227, 228, 229, 230, 231, 242, 253, 264
 275, 286, 297, 308, 319, 330, 341, 352, 363, 374, 385, 396, 407, 418, 429, 440
 441, 442, 443, 444, 445, 446, 447, 448, 451
*Elset, elset=_PickedSet10, internal, instance=stiffness-1-lin-2-1
   1,  12,  23,  34,  45,  56,  67,  78,  89, 100, 111, 122, 133, 144, 155, 166
 177, 188, 221, 222, 223, 224, 225, 226, 227, 228, 229, 230, 231, 242, 253, 264
 275, 286, 297, 308, 319, 330, 341, 352, 363, 374, 385, 396, 407, 418, 429, 440
 441, 442, 443, 444, 445, 446, 447, 448, 451
*Elset, elset=_PickedSet10, internal, instance=stiffness-1-lin-2-1-1
   1,  12,  23,  34,  45,  56,  67,  78,  89, 100, 111, 122, 133, 144, 155, 166
 177, 188, 221, 222, 223, 224, 225, 226, 227, 228, 229, 230, 231, 242, 253, 264
 275, 286, 297, 308, 319, 330, 341, 352, 363, 374, 385, 396, 407, 418, 429, 440
 441, 442, 443, 444, 445, 446, 447, 448, 451
*Nset, nset=_PickedSet11, internal, instance=C-Ch-Double-1
    7,    8,    9,   10,   17,   18,   25,   26,   33,   36,   37,   39,   44,   46,   48,   51
   52,   54,   59,   61,   73,   74,   75,   76,   77,   78,   79,  217,  218,  219,  220,  221
  222,  223,  224,  225,  226,  227,  228,  229,  230,  231,  232,  233,  234,  330,  331,  332
  333,  334,  335,  336,  337,  338,  339,  340,  341,  342,  343,  344,  345,  346,  347,  348
  571,  572,  573,  574,  575,  576,  577,  578,  579,  580,  581,  582,  583,  584,  585,  586
  587,  588,  711,  712,  713,  714,  715,  716,  717,  718,  719,  720,  721,  722,  723,  724
  725,  726,  727,  728,  729,  730,  731,  732,  733,  734,  735,  736,  737,  738,  739,  740
  741,  742,  743,  744,  922,  923,  924,  925,  926,  927,  928,  929,  930,  931,  932,  933
  934,  935,  936,  937,  938,  939,  940, 1043, 1044, 1045, 1046, 1047, 1048, 1049, 1050, 1051
 1052, 1053, 1054, 1055, 1056, 1057, 1058, 1059, 1060, 1061, 1062, 1063, 1210, 1211, 1212, 1213
 1214, 1215, 1216, 1217, 1218, 1219, 1220, 1221, 1222, 1223, 1224, 1225, 1226, 1388, 1389, 1390
 1391, 1392, 1393, 1394, 1395, 1396, 1397, 1398, 1399, 1400, 1401, 1402, 1403, 1404, 1508, 1509
 1510, 1511, 1512, 1513, 1514, 1515, 1516, 1517, 1518, 1519, 1520, 1521, 1522, 1523, 1524, 1525
 1526, 1527, 1528, 1584, 1585, 1586, 1587, 1588, 1589, 1590, 1591, 1592, 1593, 1594, 1595, 1596
 1597, 1598, 1599, 1600, 1601, 1602, 1603, 1604, 1751, 1752, 1753, 1754, 1755, 1756, 1757, 1758
 1759, 1760, 1761, 1762, 1763, 1764, 1765, 1766, 1767, 1929, 1930, 1931, 1932, 1933, 1934, 1935
 1936, 1937, 1938, 1939, 1940, 1941, 1942, 1943, 2104, 2105, 2106, 2107, 2108, 2109, 2110, 2111
 2112, 2113, 2114, 2115, 2116, 2117, 2118, 2218, 2219, 2220, 2221, 2222, 2223, 2224, 2225, 2226
 2227, 2228, 2229, 2230, 2231, 2232, 2233, 2234, 2432, 2433, 2434, 2435, 2436, 2437, 2438, 2439
 2440, 2441, 2442, 2443, 2444, 2445, 2446, 2447, 2448, 2449, 2450, 2451, 2452, 2799, 2800, 2801
 2802, 2803, 2804, 2805, 2806, 2807, 2808, 2809, 2810, 2811, 2812, 2813, 2814, 2815, 2816, 2817
 2818, 2819, 2919, 2920, 2921, 2922, 2923, 2924, 2925, 2926, 2927, 2928, 2929, 2930, 2931, 2932
 2933, 2934, 2935, 2936, 2937, 2938, 2939
*Elset, elset=_PickedSet11, internal, instance=C-Ch-Double-1
  1354,  1372,  1390,  1408,  1426,  1444,  1462,  1480,  1498,  1516,  1534,  1552,  1578,  1587,  1596,  1605
  1614,  1623,  1632,  1641,  1655,  1669,  1683,  1697,  1711,  1725,  1739,  1753,  1767,  1768,  1769,  1770
  1771,  1772,  1773,  1774,  1882,  1895,  1908,  2016,  2028,  2040,  2052,  2064,  2076,  2088,  2100,  2112
  2124,  2125,  2126,  2153,  2167,  2181,  2195,  2209,  2223,  2237,  3565,  3566,  3567,  3568,  3569,  3675
  3692,  3709,  3710,  3711,  3712,  3713,  3714,  3715,  3716,  3717,  3718,  3719,  3720,  3721,  5097,  5112
  5113,  5128,  5143,  5158,  5173,  5188,  5203,  5218,  5233,  5248,  5263,  5278,  5293,  5308,  5323,  5633
  5634,  5635,  5636,  5685,  5686,  5718,  5725,  5732,  5739,  5746,  5753,  5760,  5767,  5774,  5781,  5788
  5795,  5802,  6479,  6497,  6515,  6533,  6551,  6569,  6587,  6605,  6631,  6640,  6649,  6658,  6667,  6676
  6685,  6694,  6703,  7486,  7500,  7514,  7528,  7542,  7556,  7570,  7584,  7598,  7612,  7626,  7640,  7654
  7747,  7748,  7749,  7750,  7751,  7752,  7753,  7754,  7755,  7756,  7757,  7758,  7759,  8030,  8031,  8032
  8033,  8034,  8035,  8036,  8037,  8038,  8039,  8490,  8491,  8492,  8493,  8494,  8495,  8946,  8947,  8948
  8949,  8950,  9176,  9177,  9178,  9179,  9180,  9181,  9182,  9183,  9544,  9545,  9546,  9547,  9548,  9817
  9818,  9819,  9820,  9821, 10047, 10048, 10049, 10050, 10051, 10052, 10053, 10054, 10055, 10056, 10507, 10508
 10509, 10510, 10511, 10787, 10788, 10789, 10790, 10791, 11017, 11018, 11019, 11020, 11021, 11022, 11023, 11024
 11025, 11431, 11432, 11433, 11434, 11435, 11709, 11710, 11711, 11712, 11713, 11939, 11940, 11941, 11942, 11943
 11944, 11945, 11946, 12307, 12308, 12309, 12310, 12311, 12696, 12697, 12698, 12699, 12700, 12701, 12972, 12973
 12974, 12975, 12976, 12977, 12978, 12979, 12980, 12981, 13432, 13433, 13434, 13435, 13436, 13437, 13772, 13773
 13774, 13775, 13776, 13777, 14048, 14049, 14050, 14051, 14052, 14053, 14054, 14055, 14056, 14057, 14508, 14509
 14510, 14511, 14512, 14513, 14964, 14965, 14966, 14967, 14968, 15194, 15195, 15196, 15197, 15198, 15199, 15200
 15201, 15562, 15563, 15564, 15565, 15566, 15835, 15836, 15837, 15838, 15839, 16065, 16066, 16067, 16068, 16069
** ... 24 like lines cut
*Nset, nset=_PickedSet17, internal
 2,
*Nset, nset=_PickedSet19, internal
 1,
*Nset, nset=_PickedSet20, internal
 1, 2
*Nset, nset=_PickedSet24, internal
 3,
*Nset, nset=_PickedSet26, internal
 3,
*Nset, nset=_PickedSet136, internal, instance=load-plate-1
  1,  8, 53, 54, 55, 56, 57, 58, 59, 60, 61, 62, 63, 64, 65, 66
 67, 68, 69, 70, 71, 72
*Elset, elset=_PickedSet136, internal, instance=load-plate-1
   1,  11,  21,  31,  41,  51,  61,  71,  81,  91, 101, 111, 121, 131, 141, 151
 161, 171, 181, 191, 201, 212, 222, 232, 242, 252, 262, 272, 282, 292, 302, 312
 322, 332, 342, 352, 362, 372, 382, 392, 402, 412
*Nset, nset=_PickedSet139, internal, instance=load-plate-1
  1,  8, 53, 54, 55, 56, 57, 58, 59, 60, 61, 62, 63, 64, 65, 66
 67, 68, 69, 70, 71, 72
*Elset, elset=_PickedSet139, internal, instance=load-plate-1
   1,  11,  21,  31,  41,  51,  61,  71,  81,  91, 101, 111, 121, 131, 141, 151
 161, 171, 181, 191, 201, 212, 222, 232, 242, 252, 262, 272, 282, 292, 302, 312
 322, 332, 342, 352, 362, 372, 382, 392, 402, 412
*Nset, nset=_PickedSet150, internal, instance=C-Ch-Double-1, generate
 40,  42,   1
*Nset, nset=_PickedSet150, internal, instance=C-Ch-Double-1-lin-2-1, generate
 55,  57,   1
*Nset, nset=_PickedSet151, internal, instance=C-Ch-Double-1, generate
 55,  57,   1
*Nset, nset=_PickedSet151, internal, instance=C-Ch-Double-1-lin-2-1, generate
 40,  42,   1
*Nset, nset=_PickedSet153, internal, instance=C-Ch-Double-1-lin-2-1
    7,    8,    9,   10,   17,   18,   25,   26,   33,   36,   37,   39,   44,   46,   48,   51
   52,   54,   59,   61,   73,   74,   75,   76,   77,   78,   79,  217,  218,  219,  220,  221
  222,  223,  224,  225,  226,  227,  228,  229,  230,  231,  232,  233,  234,  330,  331,  332
  333,  334,  335,  336,  337,  338,  339,  340,  341,  342,  343,  344,  345,  346,  347,  348
  571,  572,  573,  574,  575,  576,  577,  578,  579,  580,  581,  582,  583,  584,  585,  586
  587,  588,  711,  712,  713,  714,  715,  716,  717,  718,  719,  720,  721,  722,  723,  724
  725,  726,  727,  728,  729,  730,  731,  732,  733,  734,  735,  736,  737,  738,  739,  740
  741,  742,  743,  744,  922,  923,  924,  925,  926,  927,  928,  929,  930,  931,  932,  933
  934,  935,  936,  937,  938,  939,  940, 1043, 1044, 1045, 1046, 1047, 1048, 1049, 1050, 1051
 1052, 1053, 1054, 1055, 1056, 1057, 1058, 1059, 1060, 1061, 1062, 1063, 1210, 1211, 1212, 1213
 1214, 1215, 1216, 1217, 1218, 1219, 1220, 1221, 1222, 1223, 1224, 1225, 1226, 1388, 1389, 1390
 1391, 1392, 1393, 1394, 1395, 1396, 1397, 1398, 1399, 1400, 1401, 1402, 1403, 1404, 1508, 1509
 1510, 1511, 1512, 1513, 1514, 1515, 1516, 1517, 1518, 1519, 1520, 1521, 1522, 1523, 1524, 1525
 1526, 1527, 1528, 1584, 1585, 1586, 1587, 1588, 1589, 1590, 1591, 1592, 1593, 1594, 1595, 1596
 1597, 1598, 1599, 1600, 1601, 1602, 1603, 1604, 1751, 1752, 1753, 1754, 1755, 1756, 1757, 1758
 1759, 1760, 1761, 1762, 1763, 1764, 1765, 1766, 1767, 1929, 1930, 1931, 1932, 1933, 1934, 1935
 1936, 1937, 1938, 1939, 1940, 1941, 1942, 1943, 2104, 2105, 2106, 2107, 2108, 2109, 2110, 2111
 2112, 2113, 2114, 2115, 2116, 2117, 2118, 2218, 2219, 2220, 2221, 2222, 2223, 2224, 2225, 2226
 2227, 2228, 2229, 2230, 2231, 2232, 2233, 2234, 2432, 2433, 2434, 2435, 2436, 2437, 2438, 2439
 2440, 2441, 2442, 2443, 2444, 2445, 2446, 2447, 2448, 2449, 2450, 2451, 2452, 2799, 2800, 2801
 2802, 2803, 2804, 2805, 2806, 2807, 2808, 2809, 2810, 2811, 2812, 2813, 2814, 2815, 2816, 2817
 2818, 2819, 2919, 2920, 2921, 2922, 2923, 2924, 2925, 2926, 2927, 2928, 2929, 2930, 2931, 2932
 2933, 2934, 2935, 2936, 2937, 2938, 2939
*Elset, elset=_PickedSet153, internal, instance=C-Ch-Double-1-lin-2-1
  1354,  1372,  1390,  1408,  1426,  1444,  1462,  1480,  1498,  1516,  1534,  1552,  1578,  1587,  1596,  1605
  1614,  1623,  1632,  1641,  1655,  1669,  1683,  1697,  1711,  1725,  1739,  1753,  1767,  1768,  1769,  1770
  1771,  1772,  1773,  1774,  1882,  1895,  1908,  2016,  2028,  2040,  2052,  2064,  2076,  2088,  2100,  2112
  2124,  2125,  2126,  2153,  2167,  2181,  2195,  2209,  2223,  2237,  3565,  3566,  3567,  3568,  3569,  3675
  3692,  3709,  3710,  3711,  3712,  3713,  3714,  3715,  3716,  3717,  3718,  3719,  3720,  3721,  5097,  5112
  5113,  5128,  5143,  5158,  5173,  5188,  5203,  5218,  5233,  5248,  5263,  5278,  5293,  5308,  5323,  5633
  5634,  5635,  5636,  5685,  5686,  5718,  5725,  5732,  5739,  5746,  5753,  5760,  5767,  5774,  5781,  5788
  5795,  5802,  6479,  6497,  6515,  6533,  6551,  6569,  6587,  6605,  6631,  6640,  6649,  6658,  6667,  6676
  6685,  6694,  6703,  7486,  7500,  7514,  7528,  7542,  7556,  7570,  7584,  7598,  7612,  7626,  7640,  7654
  7747,  7748,  7749,  7750,  7751,  7752,  7753,  7754,  7755,  7756,  7757,  7758,  7759,  8030,  8031,  8032
  8033,  8034,  8035,  8036,  8037,  8038,  8039,  8490,  8491,  8492,  8493,  8494,  8495,  8946,  8947,  8948
  8949,  8950,  9176,  9177,  9178,  9179,  9180,  9181,  9182,  9183,  9544,  9545,  9546,  9547,  9548,  9817
  9818,  9819,  9820,  9821, 10047, 10048, 10049, 10050, 10051, 10052, 10053, 10054, 10055, 10056, 10507, 10508
 10509, 10510, 10511, 10787, 10788, 10789, 10790, 10791, 11017, 11018, 11019, 11020, 11021, 11022, 11023, 11024
 11025, 11431, 11432, 11433, 11434, 11435, 11709, 11710, 11711, 11712, 11713, 11939, 11940, 11941, 11942, 11943
 11944, 11945, 11946, 12307, 12308, 12309, 12310, 12311, 12696, 12697, 12698, 12699, 12700, 12701, 12972, 12973
 12974, 12975, 12976, 12977, 12978, 12979, 12980, 12981, 13432, 13433, 13434, 13435, 13436, 13437, 13772, 13773
 13774, 13775, 13776, 13777, 14048, 14049, 14050, 14051, 14052, 14053, 14054, 14055, 14056, 14057, 14508, 14509
 14510, 14511, 14512, 14513, 14964, 14965, 14966, 14967, 14968, 15194, 15195, 15196, 15197, 15198, 15199, 15200
 15201, 15562, 15563, 15564, 15565, 15566, 15835, 15836, 15837, 15838, 15839, 16065, 16066, 16067, 16068, 16069
** ... 24 like lines cut
*Nset, nset=_PickedSet154, internal, instance=stiffness-1-lin-2-1-2
    1,    3,    4,    5,    6,    7,    8,   39,   40,   41,   42,   43,   44,   45,   46,   47
   48,   49,   50,   51,   52,   53,   54,   55,   56,   57,   58,   59,   60,   61,   62,   63
   64,   65,   68,   69,   70,   71,   72,   73,   74,   75,   76,   77,   78,   79,   80,   81
   82,   83,   84,   85,   86,   87,   88,   89,   90,   91,   92,   93,  508,  541,  564,  587
  610,  633,  656,  679,  702,  725,  748,  771,  794,  817,  840,  863,  886,  909,  977,  980
  982,  984,  986,  988,  990,  992,  994,  996,  998, 1020, 1043, 1066, 1089, 1112, 1135, 1158
 1181, 1204, 1227, 1250, 1273, 1296, 1319, 1342, 1365, 1388, 1411, 1434, 1437, 1440, 1442, 1444
 1446, 1448, 1450, 1452, 1457
*Nset, nset=_PickedSet154, internal, instance=stiffness-1-lin-2-1-lin-2-1
    1,    3,    4,    5,    6,    7,    8,   39,   40,   41,   42,   43,   44,   45,   46,   47
   48,   49,   50,   51,   52,   53,   54,   55,   56,   57,   58,   59,   60,   61,   62,   63
   64,   65,   68,   69,   70,   71,   72,   73,   74,   75,   76,   77,   78,   79,   80,   81
   82,   83,   84,   85,   86,   87,   88,   89,   90,   91,   92,   93,  508,  541,  564,  587
  610,  633,  656,  679,  702,  725,  748,  771,  794,  817,  840,  863,  886,  909,  977,  980
  982,  984,  986,  988,  990,  992,  994,  996,  998, 1020, 1043, 1066, 1089, 1112, 1135, 1158
 1181, 1204, 1227, 1250, 1273, 1296, 1319, 1342, 1365, 1388, 1411, 1434, 1437, 1440, 1442, 1444
 1446, 1448, 1450, 1452, 1457
*Nset, nset=_PickedSet154, internal, instance=stiffness-1-lin-2-1-1-lin-2-1
    1,    3,    4,    5,    6,    7,    8,   39,   40,   41,   42,   43,   44,   45,   46,   47
   48,   49,   50,   51,   52,   53,   54,   55,   56,   57,   58,   59,   60,   61,   62,   63
   64,   65,   68,   69,   70,   71,   72,   73,   74,   75,   76,   77,   78,   79,   80,   81
   82,   83,   84,   85,   86,   87,   88,   89,   90,   91,   92,   93,  508,  541,  564,  587
  610,  633,  656,  679,  702,  725,  748,  771,  794,  817,  840,  863,  886,  909,  977,  980
  982,  984,  986,  988,  990,  992,  994,  996,  998, 1020, 1043, 1066, 1089, 1112, 1135, 1158
 1181, 1204, 1227, 1250, 1273, 1296, 1319, 1342, 1365, 1388, 1411, 1434, 1437, 1440, 1442, 1444
 1446, 1448, 1450, 1452, 1457
*Elset, elset=_PickedSet154, internal, instance=stiffness-1-lin-2-1-2
   1,  12,  23,  34,  45,  56,  67,  78,  89, 100, 111, 122, 133, 144, 155, 166
 177, 188, 221, 222, 223, 224, 225, 226, 227, 228, 229, 230, 231, 242, 253, 264
 275, 286, 297, 308, 319, 330, 341, 352, 363, 374, 385, 396, 407, 418, 429, 440
 441, 442, 443, 444, 445, 446, 447, 448, 451
*Elset, elset=_PickedSet154, internal, instance=stiffness-1-lin-2-1-lin-2-1
   1,  12,  23,  34,  45,  56,  67,  78,  89, 100, 111, 122, 133, 144, 155, 166
 177, 188, 221, 222, 223, 224, 225, 226, 227, 228, 229, 230, 231, 242, 253, 264
 275, 286, 297, 308, 319, 330, 341, 352, 363, 374, 385, 396, 407, 418, 429, 440
 441, 442, 443, 444, 445, 446, 447, 448, 451
*Elset, elset=_PickedSet154, internal, instance=stiffness-1-lin-2-1-1-lin-2-1
   1,  12,  23,  34,  45,  56,  67,  78,  89, 100, 111, 122, 133, 144, 155, 166
 177, 188, 221, 222, 223, 224, 225, 226, 227, 228, 229, 230, 231, 242, 253, 264
 275, 286, 297, 308, 319, 330, 341, 352, 363, 374, 385, 396, 407, 418, 429, 440
 441, 442, 443, 444, 445, 446, 447, 448, 451
*Elset, elset=_Plt1-O_SNEG, internal, instance=C-Ch-Double-1
    87,    88,    89,    90,    91,    92,    93,    94,    95,    96,    97,    98,    99,   100,   101,   102
   103,   104,   105,   106,   107,   108,   109,   110,   111,   112,   113,   114,   115,   116,   117,   118
   119,   120,   121,   122,   123,   124,   125,   126,   127,   128,   129,   130,   131,   132,   133,   134
   135,   136,   137,   138,   139,   140,   141,   142,   143,   144,   145,   146,   147,   148,   149,   150
   151,   152,   153,   154,   155,   156,   157,   158,   159,   160,   161,   162,   163,   164,   165,   166
   167,   168,   169,   170,   171,   172,   173,   174,   175,   176,   177,   178,   179,   180,   181,   182
   183,   184,   185,   186,   187,   188,   189,   190,   191,   192,   193,   194,   195,   196,   197,   198
   199,   200,   201,   202,   203,   204,   205,   206,   207,   208,   209,   210,   211,   212,   213,   214
   215,   216,   217,   218,   219,   220,   221,   222,   223,   224,   225,   226,   227,   228,   229,   230
   231,   232,   233,   234,   235,   236,   237,   238,   239,   240,   241,   242,   243,   244,   245,   246
   247,   248,   249,   250,   251,   252,   253,   254,   255,   256,   257,   258,   259,   260,   261,   262
   263,   264,   265,   266,   267,   268,   269,   270,   271,   272,   273,   274,   275,   276,   277,   278
   279,   280,   281,   282,   283,   284,   285,   286,   287,   288,   289,   290,   291,   292,   293,   294
   295,   296,   297,   298,   299,   300,   301,   302,   303,   304,   305,   306,   307,   308,   309,   310
   311,   312,   313,   314,   315,   316,   317,   318,   319,   320,   321,   322,   323,   324,   325,   326
   327,   328,   329,   330,   331,   332,   333,   334,   335,   336,   337,   338,   339,   340,   341,   342
   343,   344,   345,   346,   347,   348,   349,   350,   351,   352,   353,   354,   355,   356,   357,   358
   359,   360,   361,   362,   363,   364,   365,   366,   367,   368,   369,   370,   371,   372,   373,   374
   375,   376,   377,   378,   379,   380,   381,   382,   383,   384,   385,   386,   387,   388,   389,   390
   391,   392,   393,   394,   395,   396,   397,   398,   399,   400,   401,   402,   403,   404,   405,   406
** ... 1328 like lines cut
*Surface, type=ELEMENT, name=Plt1-O
_Plt1-O_SNEG, SNEG
*Elset, elset=_Plt2-O_SNEG, internal, instance=C-Ch-Double-1-lin-2-1
    87,    88,    89,    90,    91,    92,    93,    94,    95,    96,    97,    98,    99,   100,   101,   102
   103,   104,   105,   106,   107,   108,   109,   110,   111,   112,   113,   114,   115,   116,   117,   118
   119,   120,   121,   122,   123,   124,   125,   126,   127,   128,   129,   130,   131,   132,   133,   134
   135,   136,   137,   138,   139,   140,   141,   142,   143,   144,   145,   146,   147,   148,   149,   150
   151,   152,   153,   154,   155,   156,   157,   158,   159,   160,   161,   162,   163,   164,   165,   166
   167,   168,   169,   170,   171,   172,   173,   174,   175,   176,   177,   178,   179,   180,   181,   182
   183,   184,   185,   186,   187,   188,   189,   190,   191,   192,   193,   194,   195,   196,   197,   198
   199,   200,   201,   202,   203,   204,   205,   206,   207,   208,   209,   210,   211,   212,   213,   214
   215,   216,   217,   218,   219,   220,   221,   222,   223,   224,   225,   226,   227,   228,   229,   230
   231,   232,   233,   234,   235,   236,   237,   238,   239,   240,   241,   242,   243,   244,   245,   246
   247,   248,   249,   250,   251,   252,   253,   254,   255,   256,   257,   258,   259,   260,   261,   262
   263,   264,   265,   266,   267,   268,   269,   270,   271,   272,   273,   274,   275,   276,   277,   278
   279,   280,   281,   282,   283,   284,   285,   286,   287,   288,   289,   290,   291,   292,   293,   294
   295,   296,   297,   298,   299,   300,   301,   302,   303,   304,   305,   306,   307,   308,   309,   310
   311,   312,   313,   314,   315,   316,   317,   318,   319,   320,   321,   322,   323,   324,   325,   326
   327,   328,   329,   330,   331,   332,   333,   334,   335,   336,   337,   338,   339,   340,   341,   342
   343,   344,   345,   346,   347,   348,   349,   350,   351,   352,   353,   354,   355,   356,   357,   358
   359,   360,   361,   362,   363,   364,   365,   366,   367,   368,   369,   370,   371,   372,   373,   374
   375,   376,   377,   378,   379,   380,   381,   382,   383,   384,   385,   386,   387,   388,   389,   390
   391,   392,   393,   394,   395,   396,   397,   398,   399,   400,   401,   402,   403,   404,   405,   406
** ... 1328 like lines cut
*Surface, type=ELEMENT, name=Plt2-O
_Plt2-O_SNEG, SNEG
*Elset, elset=_hole-ch_SNEG, internal, instance=C-Ch-Double-1
     1,     2,     3,     4,     5,     6,     7,     8,     9,    10,    11,    12,    13,    14,    15,    16
    17,    18,    19,    20,    21,    22,    23,    24,    25,    26,    27,    28,    29,    30,    31,    32
    33,    34,    35,    36,    37,    38,    39,    40,    41,    42,    43,    44,    45,    46,    47,    48
    49,    50,    51,    52,    53,    54,    55,    56,    57,    58,    59,    60,    61,    62,    63,    64
    65,    66,    67,    68,    69,    70,    71,    72,    73,    74,    75,    76,    77,    78,    79,    80
    81,    82,    83,    84,    85,    86,  1909,  1910,  1911,  1912,  1913,  1914,  1915,  1916,  1917,  1918
  1919,  1920,  1921,  1922,  1923,  1924,  1925,  1926,  1927,  1928,  1929,  1930,  1931,  1932,  1933,  1934
  1935,  1936,  1937,  1938,  1939,  1940,  1941,  1942,  1943,  1944,  1945,  1946,  1947,  1948,  1949,  1950
  1951,  1952,  1953,  1954,  1955,  1956,  1957,  1958,  1959,  1960,  1961,  1962,  1963,  1964,  1965,  1966
  1967,  1968,  1969,  1970,  1971,  1972,  1973,  1974,  1975,  1976,  1977,  1978,  1979,  1980,  1981,  1982
  1983,  1984,  3926,  3927,  3928,  3929,  3930,  3931,  3932,  3933,  3934,  3935,  3936,  3937,  3938,  3939
  3940,  3941,  3942,  3943,  3944,  3945,  3946,  3947,  3948,  3949,  3950,  3951,  3952,  3953,  3954,  3955
  3956,  3957,  3958,  3959,  3960,  3961,  3962,  3963,  3964,  3965,  3966,  3967,  3968,  3969,  3970,  3971
  3972,  3973,  3974,  3975,  3976,  3977,  3978,  3979,  3980,  3981,  3982,  3983,  3984,  3985,  3986,  3987
  3988,  3989,  3990,  3991,  3992,  3993,  3994,  3995,  3996,  3997,  3998,  3999,  4000,  4001,  4002,  4003
  4004,  4005,  4006,  4007,  4008,  5809,  5810,  5811,  5812,  5813,  5814,  5815,  5816,  5817,  5818,  5819
  5820,  5821,  5822,  5823,  5824,  5825,  5826,  5827,  5828,  5829,  5830,  5831,  5832,  5833,  5834,  5835
  5836,  5837,  5838,  5839,  5840,  5841,  5842,  5843,  5844,  5845,  5846,  5847,  5848,  5849,  5850,  5851
  5852,  5853,  5854,  5855,  5856,  5857,  5858,  5859,  5860,  5861,  5862,  5863,  5864,  5865,  5866,  5867
  5868,  5869,  5870,  5871,  5872,  5873,  5874,  5875,  5876,  5877,  5878,  5879,  5880,  5881,  5882,  5883
** ... 5 like lines cut
*Elset, elset=_hole-ch_SNEG, internal, instance=C-Ch-Double-1-lin-2-1
     1,     2,     3,     4,     5,     6,     7,     8,     9,    10,    11,    12,    13,    14,    15,    16
    17,    18,    19,    20,    21,    22,    23,    24,    25,    26,    27,    28,    29,    30,    31,    32
    33,    34,    35,    36,    37,    38,    39,    40,    41,    42,    43,    44,    45,    46,    47,    48
    49,    50,    51,    52,    53,    54,    55,    56,    57,    58,    59,    60,    61,    62,    63,    64
    65,    66,    67,    68,    69,    70,    71,    72,    73,    74,    75,    76,    77,    78,    79,    80
    81,    82,    83,    84,    85,    86,  1909,  1910,  1911,  1912,  1913,  1914,  1915,  1916,  1917,  1918
  1919,  1920,  1921,  1922,  1923,  1924,  1925,  1926,  1927,  1928,  1929,  1930,  1931,  1932,  1933,  1934
  1935,  1936,  1937,  1938,  1939,  1940,  1941,  1942,  1943,  1944,  1945,  1946,  1947,  1948,  1949,  1950
  1951,  1952,  1953,  1954,  1955,  1956,  1957,  1958,  1959,  1960,  1961,  1962,  1963,  1964,  1965,  1966
  1967,  1968,  1969,  1970,  1971,  1972,  1973,  1974,  1975,  1976,  1977,  1978,  1979,  1980,  1981,  1982
  1983,  1984,  3926,  3927,  3928,  3929,  3930,  3931,  3932,  3933,  3934,  3935,  3936,  3937,  3938,  3939
  3940,  3941,  3942,  3943,  3944,  3945,  3946,  3947,  3948,  3949,  3950,  3951,  3952,  3953,  3954,  3955
  3956,  3957,  3958,  3959,  3960,  3961,  3962,  3963,  3964,  3965,  3966,  3967,  3968,  3969,  3970,  3971
  3972,  3973,  3974,  3975,  3976,  3977,  3978,  3979,  3980,  3981,  3982,  3983,  3984,  3985,  3986,  3987
  3988,  3989,  3990,  3991,  3992,  3993,  3994,  3995,  3996,  3997,  3998,  3999,  4000,  4001,  4002,  4003
  4004,  4005,  4006,  4007,  4008,  5809,  5810,  5811,  5812,  5813,  5814,  5815,  5816,  5817,  5818,  5819
  5820,  5821,  5822,  5823,  5824,  5825,  5826,  5827,  5828,  5829,  5830,  5831,  5832,  5833,  5834,  5835
  5836,  5837,  5838,  5839,  5840,  5841,  5842,  5843,  5844,  5845,  5846,  5847,  5848,  5849,  5850,  5851
  5852,  5853,  5854,  5855,  5856,  5857,  5858,  5859,  5860,  5861,  5862,  5863,  5864,  5865,  5866,  5867
  5868,  5869,  5870,  5871,  5872,  5873,  5874,  5875,  5876,  5877,  5878,  5879,  5880,  5881,  5882,  5883
** ... 5 like lines cut
*Surface, type=ELEMENT, name=hole-ch
_hole-ch_SNEG, SNEG
*Elset, elset=_hole-ch1_SNEG, internal, instance=C-Ch-Double-1
     1,     2,     3,     4,     5,     6,     7,     8,     9,    10,    11,    12,    13,    14,    15,    16
    17,    18,    19,    20,    21,    22,    23,    24,    25,    26,    27,    28,    29,    30,    31,    32
    33,    34,    35,    36,    37,    38,    39,    40,    41,    42,    43,    44,    45,    46,    47,    48
    49,    50,    51,    52,    53,    54,    55,    56,    57,    58,    59,    60,    61,    62,    63,    64
    65,    66,    67,    68,    69,    70,    71,    72,    73,    74,    75,    76,    77,    78,    79,    80
    81,    82,    83,    84,    85,    86,  1909,  1910,  1911,  1912,  1913,  1914,  1915,  1916,  1917,  1918
  1919,  1920,  1921,  1922,  1923,  1924,  1925,  1926,  1927,  1928,  1929,  1930,  1931,  1932,  1933,  1934
  1935,  1936,  1937,  1938,  1939,  1940,  1941,  1942,  1943,  1944,  1945,  1946,  1947,  1948,  1949,  1950
  1951,  1952,  1953,  1954,  1955,  1956,  1957,  1958,  1959,  1960,  1961,  1962,  1963,  1964,  1965,  1966
  1967,  1968,  1969,  1970,  1971,  1972,  1973,  1974,  1975,  1976,  1977,  1978,  1979,  1980,  1981,  1982
  1983,  1984,  3926,  3927,  3928,  3929,  3930,  3931,  3932,  3933,  3934,  3935,  3936,  3937,  3938,  3939
  3940,  3941,  3942,  3943,  3944,  3945,  3946,  3947,  3948,  3949,  3950,  3951,  3952,  3953,  3954,  3955
  3956,  3957,  3958,  3959,  3960,  3961,  3962,  3963,  3964,  3965,  3966,  3967,  3968,  3969,  3970,  3971
  3972,  3973,  3974,  3975,  3976,  3977,  3978,  3979,  3980,  3981,  3982,  3983,  3984,  3985,  3986,  3987
  3988,  3989,  3990,  3991,  3992,  3993,  3994,  3995,  3996,  3997,  3998,  3999,  4000,  4001,  4002,  4003
  4004,  4005,  4006,  4007,  4008,  5809,  5810,  5811,  5812,  5813,  5814,  5815,  5816,  5817,  5818,  5819
  5820,  5821,  5822,  5823,  5824,  5825,  5826,  5827,  5828,  5829,  5830,  5831,  5832,  5833,  5834,  5835
  5836,  5837,  5838,  5839,  5840,  5841,  5842,  5843,  5844,  5845,  5846,  5847,  5848,  5849,  5850,  5851
  5852,  5853,  5854,  5855,  5856,  5857,  5858,  5859,  5860,  5861,  5862,  5863,  5864,  5865,  5866,  5867
  5868,  5869,  5870,  5871,  5872,  5873,  5874,  5875,  5876,  5877,  5878,  5879,  5880,  5881,  5882,  5883
** ... 5 like lines cut
*Surface, type=ELEMENT, name=hole-ch1
_hole-ch1_SNEG, SNEG
*Elset, elset=_hole-ch2_SNEG, internal, instance=C-Ch-Double-1-lin-2-1
     1,     2,     3,     4,     5,     6,     7,     8,     9,    10,    11,    12,    13,    14,    15,    16
    17,    18,    19,    20,    21,    22,    23,    24,    25,    26,    27,    28,    29,    30,    31,    32
    33,    34,    35,    36,    37,    38,    39,    40,    41,    42,    43,    44,    45,    46,    47,    48
    49,    50,    51,    52,    53,    54,    55,    56,    57,    58,    59,    60,    61,    62,    63,    64
    65,    66,    67,    68,    69,    70,    71,    72,    73,    74,    75,    76,    77,    78,    79,    80
    81,    82,    83,    84,    85,    86,  1909,  1910,  1911,  1912,  1913,  1914,  1915,  1916,  1917,  1918
  1919,  1920,  1921,  1922,  1923,  1924,  1925,  1926,  1927,  1928,  1929,  1930,  1931,  1932,  1933,  1934
  1935,  1936,  1937,  1938,  1939,  1940,  1941,  1942,  1943,  1944,  1945,  1946,  1947,  1948,  1949,  1950
  1951,  1952,  1953,  1954,  1955,  1956,  1957,  1958,  1959,  1960,  1961,  1962,  1963,  1964,  1965,  1966
  1967,  1968,  1969,  1970,  1971,  1972,  1973,  1974,  1975,  1976,  1977,  1978,  1979,  1980,  1981,  1982
  1983,  1984,  3926,  3927,  3928,  3929,  3930,  3931,  3932,  3933,  3934,  3935,  3936,  3937,  3938,  3939
  3940,  3941,  3942,  3943,  3944,  3945,  3946,  3947,  3948,  3949,  3950,  3951,  3952,  3953,  3954,  3955
  3956,  3957,  3958,  3959,  3960,  3961,  3962,  3963,  3964,  3965,  3966,  3967,  3968,  3969,  3970,  3971
  3972,  3973,  3974,  3975,  3976,  3977,  3978,  3979,  3980,  3981,  3982,  3983,  3984,  3985,  3986,  3987
  3988,  3989,  3990,  3991,  3992,  3993,  3994,  3995,  3996,  3997,  3998,  3999,  4000,  4001,  4002,  4003
  4004,  4005,  4006,  4007,  4008,  5809,  5810,  5811,  5812,  5813,  5814,  5815,  5816,  5817,  5818,  5819
  5820,  5821,  5822,  5823,  5824,  5825,  5826,  5827,  5828,  5829,  5830,  5831,  5832,  5833,  5834,  5835
  5836,  5837,  5838,  5839,  5840,  5841,  5842,  5843,  5844,  5845,  5846,  5847,  5848,  5849,  5850,  5851
  5852,  5853,  5854,  5855,  5856,  5857,  5858,  5859,  5860,  5861,  5862,  5863,  5864,  5865,  5866,  5867
  5868,  5869,  5870,  5871,  5872,  5873,  5874,  5875,  5876,  5877,  5878,  5879,  5880,  5881,  5882,  5883
** ... 5 like lines cut
*Surface, type=ELEMENT, name=hole-ch2
_hole-ch2_SNEG, SNEG
*Elset, elset=_hole-pplt-ch_, internal, instance=patch-plate-1
   1,   2,   3,   4,   5,   6,   7,   8,   9,  10, 187, 188, 189, 190, 191, 192
 193, 194, 195, 196, 362, 363, 364, 365, 366, 367, 368, 369, 370, 371, 562, 563
 564, 565, 566, 567, 568, 569, 570, 571, 741, 742, 937, 938, 939, 940, 941, 942
*Surface, type=ELEMENT, name=hole-pplt-ch
_hole-pplt-ch_, 
*Elset, elset=_plate-lower_S4, internal, instance=load-plate-1, generate
   2,  210,    2
*Elset, elset=_plate-lower_S6, internal, instance=load-plate-1, generate
 211,  419,    2
*Surface, type=ELEMENT, name=plate-lower
_plate-lower_S4, S4
_plate-lower_S6, S6
*Elset, elset=_plate-upper_S4, internal, instance=load-plate-1, generate
 212,  420,    2
*Elset, elset=_plate-upper_S6, internal, instance=load-plate-1, generate
   1,  209,    2
*Surface, type=ELEMENT, name=plate-upper
_plate-upper_S4, S4
_plate-upper_S6, S6
*Elset, elset=__PickedSurf123_S4, internal, instance=load-plate-1, generate
   2,  210,    2
*Elset, elset=__PickedSurf123_S6, internal, instance=load-plate-1, generate
 211,  419,    2
*Surface, type=ELEMENT, name=_PickedSurf123, internal
__PickedSurf123_S4, S4
__PickedSurf123_S6, S6
*Elset, elset=__PickedSurf124_SNEG, internal, instance=C-Ch-Double-1
 26678, 26679, 26680, 26681, 26682, 26683, 26684, 26685, 26686, 26687, 26688, 26689, 26690, 26691, 26692, 26693
 26694, 26695, 26696, 26697, 26698, 26699, 26700, 26701, 26702, 26703, 26704, 26705, 26706, 26707, 26708, 26709
 26710, 26711, 26712, 26713, 26714, 26715, 26716, 26717, 26718, 26719, 26720, 26721, 26722, 26723, 26724, 26725
 26726, 26727, 26728, 26729, 26730, 26731, 26732, 26733, 26734, 26735, 26736, 26737, 26738, 26739, 26740, 26741
 26742, 26743, 26744, 26745, 26746, 26747, 26748, 26749, 26750, 26751, 26752, 26753, 26754, 26755, 26756, 26757
 26758, 26759, 26760, 26761, 26762, 26763, 26764, 26765, 26766, 26767, 26768, 26769, 26770, 26771, 26772, 26773
 26774, 26775, 26776, 26777, 26778, 26779, 26780, 26781, 26782, 26783, 26784, 26785, 26786, 26787, 26788, 26789
 26790, 26791, 26792, 26793, 26794, 26795, 26796, 26797, 26798, 26799, 26800, 26801, 26802, 26803, 26804, 26805
 26806, 26807, 26808, 26809, 26810, 26811, 26812, 26813, 26814, 26815, 26816, 26817, 26818, 26819, 26820, 26821
 26822, 26823, 26824, 26825, 26826, 26827, 26828, 26829, 26830, 26831, 26832, 26833, 26834, 26835, 26836, 26837
 26838, 26839, 26840, 26841, 26842, 26843, 26844, 26845, 26846, 26847, 26848, 26849, 26850, 26851, 26852, 26853
 26854, 26855, 26856, 26857, 26858, 26859, 26860, 26861, 26862, 26863, 26864, 26865, 26866, 26867, 26868, 26869
 26870, 26871, 26872, 26873, 26874, 26875, 26876, 26877, 26878, 26879, 26880, 26881, 26882, 26883, 26884, 26885
 26886, 26887, 26888, 26889, 26890, 26891, 26892, 26893, 26894, 26895, 26896, 26897, 26898, 26899, 26900, 26901
 26902, 26903, 26904, 26905, 26906, 26907, 26908, 26909, 26910, 26911, 26912, 26913, 26914, 26915, 26916, 26917
 26918, 26919, 26920, 26921, 26922, 26923, 26924, 26925, 26926, 26927, 26928, 26929, 26930, 26931, 26932, 26933
 26934, 26935, 26936, 26937, 26938, 26939, 26940, 26941, 26942, 26943, 26944, 26945, 26946, 26947, 26948, 26949
 26950, 26951, 26952, 26953, 26954, 26955, 26956, 26957, 26958, 26959, 26960, 26961, 26962, 26963, 26964, 26965
 26966, 26967, 26968, 26969, 26970, 26971, 26972, 26973, 26974, 26975, 26976, 26977, 28054, 28055, 28056, 28057
 28058, 28059, 28060, 28061, 28062, 28063, 28064, 28065, 28066, 28067, 28068, 28069, 28070, 28071, 28072, 28073
** ... 293 like lines cut
*Surface, type=ELEMENT, name=_PickedSurf124, internal
__PickedSurf124_SNEG, SNEG
*Elset, elset=__PickedSurf152_SNEG, internal, instance=C-Ch-Double-1
 28054, 28055, 28056, 28057, 28058, 28059, 28060, 28061, 28062, 28063, 28064, 28065, 28066, 28067, 28068, 28069
 28070, 28071, 28072, 28073, 28074, 28075, 28076, 28077, 28078, 28079, 28080, 28081, 28082, 28083, 28084, 28085
 28086, 28087, 28088, 28089, 28090, 28091, 28092, 28093, 28094, 28095, 28096, 28097, 28098, 28099, 28100, 28101
 28102, 28103, 28104, 28105, 28106, 28107, 28108, 28109, 28110, 28111, 28112, 28113, 28114, 28115, 28116, 28117
 28118, 28119, 28120, 28121, 28122, 28123, 28124, 28125, 28126, 28127, 28128, 28129, 28130, 28131, 28132, 28133
 28134, 28135, 28136, 28137, 28138, 28139, 28140, 28141, 28142, 28143, 28144, 28145, 28146, 28147, 28148, 28149
 28150, 28151, 28152, 28153, 28154, 28155, 28156, 28157, 28158, 28159, 28160, 28161, 28162, 28163, 28164, 28165
 28166, 28167, 28168, 28169, 28170, 28171, 28172, 28173, 28174, 28175, 28176, 28177, 28178, 28179, 28180, 28181
 28182, 28183, 28184, 28185, 28186, 28187, 28188, 28189, 28190, 28191, 28192, 28193, 28194, 28195, 28196, 28197
 28198, 28199, 28200, 28201, 28202, 28203, 28204, 28205, 28206, 28207, 28208, 28209, 28210, 28211, 28212, 28213
 28214, 28215, 28216, 28217, 28218, 28219, 28220, 28221, 28222, 28223, 28224, 28225, 28226, 28227, 28228, 28229
 28230, 28231, 28232, 28233, 28234, 28235, 28236, 28237, 28238, 28239, 28240, 28241, 28242, 28243, 28244, 28245
 28246, 28247, 28248, 28249, 28250, 28251, 28252, 28253, 28254, 28255, 28256, 28257, 28258, 28259, 28260, 28261
 28262, 28263, 28264, 28265, 28266, 28267, 28268, 28269, 28270, 28271, 28272, 28273, 28274, 28275, 28276, 28277
 28278, 28279, 28280, 28281, 28282, 28283, 28284, 28285, 28286, 28287, 28288, 28289, 28290, 28291, 28292, 28293
 28294, 28295, 28296, 28297, 28298, 28299, 28300, 28301, 28302, 28303, 28304, 28305, 28306, 28307, 28308, 28309
 28310, 28311, 28312, 28313, 28314, 28315, 28316, 28317, 28318, 28319, 28320, 28321, 28322, 28323, 28324, 28325
 28326, 28327, 28328, 28329, 28330, 28331, 28332, 28333, 28334, 28335, 28336, 28337, 28338, 28339, 28340, 28341
 28342, 28343, 28344, 28345, 28346, 28347, 28348, 28349, 28350, 28351, 28352, 28353, 28354, 28355, 28356, 28357
 28358, 28359, 28360, 28361, 28362, 28363, 28364, 28365, 28366, 28367, 28368, 28369, 28370, 28371, 28372, 28373
** ... 255 like lines cut
*Elset, elset=__PickedSurf152_SNEG, internal, instance=C-Ch-Double-1-lin-2-1
 28054, 28055, 28056, 28057, 28058, 28059, 28060, 28061, 28062, 28063, 28064, 28065, 28066, 28067, 28068, 28069
 28070, 28071, 28072, 28073, 28074, 28075, 28076, 28077, 28078, 28079, 28080, 28081, 28082, 28083, 28084, 28085
 28086, 28087, 28088, 28089, 28090, 28091, 28092, 28093, 28094, 28095, 28096, 28097, 28098, 28099, 28100, 28101
 28102, 28103, 28104, 28105, 28106, 28107, 28108, 28109, 28110, 28111, 28112, 28113, 28114, 28115, 28116, 28117
 28118, 28119, 28120, 28121, 28122, 28123, 28124, 28125, 28126, 28127, 28128, 28129, 28130, 28131, 28132, 28133
 28134, 28135, 28136, 28137, 28138, 28139, 28140, 28141, 28142, 28143, 28144, 28145, 28146, 28147, 28148, 28149
 28150, 28151, 28152, 28153, 28154, 28155, 28156, 28157, 28158, 28159, 28160, 28161, 28162, 28163, 28164, 28165
 28166, 28167, 28168, 28169, 28170, 28171, 28172, 28173, 28174, 28175, 28176, 28177, 28178, 28179, 28180, 28181
 28182, 28183, 28184, 28185, 28186, 28187, 28188, 28189, 28190, 28191, 28192, 28193, 28194, 28195, 28196, 28197
 28198, 28199, 28200, 28201, 28202, 28203, 28204, 28205, 28206, 28207, 28208, 28209, 28210, 28211, 28212, 28213
 28214, 28215, 28216, 28217, 28218, 28219, 28220, 28221, 28222, 28223, 28224, 28225, 28226, 28227, 28228, 28229
 28230, 28231, 28232, 28233, 28234, 28235, 28236, 28237, 28238, 28239, 28240, 28241, 28242, 28243, 28244, 28245
 28246, 28247, 28248, 28249, 28250, 28251, 28252, 28253, 28254, 28255, 28256, 28257, 28258, 28259, 28260, 28261
 28262, 28263, 28264, 28265, 28266, 28267, 28268, 28269, 28270, 28271, 28272, 28273, 28274, 28275, 28276, 28277
 28278, 28279, 28280, 28281, 28282, 28283, 28284, 28285, 28286, 28287, 28288, 28289, 28290, 28291, 28292, 28293
 28294, 28295, 28296, 28297, 28298, 28299, 28300, 28301, 28302, 28303, 28304, 28305, 28306, 28307, 28308, 28309
 28310, 28311, 28312, 28313, 28314, 28315, 28316, 28317, 28318, 28319, 28320, 28321, 28322, 28323, 28324, 28325
 28326, 28327, 28328, 28329, 28330, 28331, 28332, 28333, 28334, 28335, 28336, 28337, 28338, 28339, 28340, 28341
 28342, 28343, 28344, 28345, 28346, 28347, 28348, 28349, 28350, 28351, 28352, 28353, 28354, 28355, 28356, 28357
 28358, 28359, 28360, 28361, 28362, 28363, 28364, 28365, 28366, 28367, 28368, 28369, 28370, 28371, 28372, 28373
** ... 255 like lines cut
*Surface, type=ELEMENT, name=_PickedSurf152, internal
__PickedSurf152_SNEG, SNEG
*Surface, type=NODE, name=_PickedSet139_CNS_, internal
_PickedSet139, 1.
*Surface, type=NODE, name=_PickedSet11_CNS_, internal
_PickedSet11, 1.
*Surface, type=NODE, name=_PickedSet10_CNS_, internal
_PickedSet10, 1.
*Surface, type=NODE, name=_PickedSet153_CNS_, internal
_PickedSet153, 1.
*Surface, type=NODE, name=_PickedSet154_CNS_, internal
_PickedSet154, 1.
*Surface, type=NODE, name=sup-plt-bolt_CNS_, internal
sup-plt-bolt, 1.
*Surface, type=NODE, name=cch-supbolt_CNS_, internal
cch-supbolt, 1.
** Constraint: RP-load
*Coupling, constraint name=RP-load, ref node=_PickedSet26, surface=_PickedSet139_CNS_
*Kinematic
** Constraint: ch1-pplt-ch2
*Tie, name=ch1-pplt-ch2, adjust=no, position tolerance=8.6
hole-ch, hole-pplt-ch
** Constraint: plate-tflg
*Tie, name=plate-tflg, adjust=no, position tolerance=0.1
plate-lower, _PickedSurf152
** Constraint: stff-cch
*Tie, name=stff-cch, adjust=no, position tolerance=5.02
_PickedSet10_CNS_, _PickedSet11_CNS_
** Constraint: stff-cch-2
*Tie, name=stff-cch-2, adjust=no, position tolerance=5.02
_PickedSet154_CNS_, _PickedSet153_CNS_
** Constraint: sup-plt-bolt
*Tie, name=sup-plt-bolt, adjust=no, position tolerance=8.6
cch-supbolt_CNS_, sup-plt-bolt_CNS_
** 
** INTEGRATED OUTPUT SECTIONS
** 
*Integrated Output Section, name=load, surface=plate-lower, project orientation=NO
*End Assembly
** 
** MATERIALS
** 
*Material, name=Elastic
*Density
 7.85e-09,
*Elastic
205000., 0.3
*Material, name=HT780
*Density
 7.85e-09,
*Elastic
205000., 0.3
*Plastic
    780.,         0.
 777.325, 0.00104294
  778.35, 0.00154157
   780.4, 0.00253808
  782.45,  0.0035336
   784.5, 0.00452813
  786.55, 0.00552167
   788.6, 0.00651423
  790.65,  0.0075058
   792.7, 0.00849639
   813.2,  0.0183487
   833.7,  0.0281049
 844.975,  0.0334305
    845.,         1.
*Material, name=timber
*Density
 7e-10,
*Elastic
120000., 0.4
** 
** INTERACTION PROPERTIES
** 
*Surface Interaction, name=GC
1.,
*Friction, slip tolerance=0.005
 0.2,
*Surface Behavior, pressure-overclosure=HARD
** 
** BOUNDARY CONDITIONS
** 
** Name: Sup-plt Type: Symmetry/Antisymmetry/Encastre
*Boundary
sup-point, ENCASTRE
** ----------------------------------------------------------------
** 
** STEP: Step-1
** 
*Step, name=Step-1, nlgeom=YES
*Static, stabilize=0.0002, allsdtol=0.05, continue=NO
0.1, 1., 1e-08, 0.2
** 
** BOUNDARY CONDITIONS
** 
** Name: load Type: Displacement/Rotation
*Boundary
_PickedSet24, 1, 1
_PickedSet24, 2, 2, -5.
_PickedSet24, 3, 3
** 
** LOADS
** 
** Name: DL   Type: Gravity
*Dload
, GRAV, 9.8, 0., -1., 0.
** 
** OUTPUT REQUESTS
** 
*Restart, write, frequency=0
** 
** FIELD OUTPUT: F-Output-1
** 
*Output, field
*Node Output
RF, RT, U, UR
*Element Output, directions=YES
MISES, PEEQ, S
** 
** HISTORY OUTPUT: load-int
** 
*Output, history
*Integrated Output, section=load
SOF, 
*End Step
